examples/Custom_controls_example/DSSfiles/Diamond_dss/Loads.dss
New Load.1323503E-B phases=1 bus=X_1323503E_T_05060.2 kV=0.24 kW=22.3332635954929 pf=0.96353593 status=variable mode=4 CVRwatts=0.8 CVRvars=3 class=1 numcust=0 !yearly=LoadProfile !xfkVA=38
New Load.4417776E-ABC phases=3 bus=X_4417776E_T_05060.1.2.3 kV=0.48 kW=21.5891740463149 pf=0.94103881 status=variable mode=4 CVRwatts=0.8 CVRvars=3 class=1 numcust=0 !yearly=LoadProfile !xfkVA=45
New Load.121642E-ABC phases=3 bus=X_121642E_T_05060.1.2.3 kV=0.48 kW=11.9939856858459 pf=0.94103881 status=variable mode=4 CVRwatts=0.8 CVRvars=3 class=1 numcust=0 !yearly=LoadProfile !xfkVA=25
New Load.533712ET1-A phases=1 bus=X_533712ET1_T_05060.1 kV=0.24 kW=11.4805123107917 pf=0.96713312 status=variable mode=4 CVRwatts=0.8 CVRvars=3 class=1 numcust=0 !yearly=LoadProfile !xfkVA=25
New Load.4082101E-C phases=1 bus=X_4082101E_T_05060.3 kV=0.24 kW=16.2291821822021 pf=0.94993192 status=variable mode=4 CVRwatts=0.8 CVRvars=3 class=1 numcust=0 !yearly=LoadProfile !xfkVA=25
New Load.1041675E-ABC phases=3 bus=X_1041675E_T_05060.1.2.3 kV=0.48 kW=7.19639103509204 pf=0.94103881 status=variable mode=4 CVRwatts=0.8 CVRvars=3 class=1 numcust=0 !yearly=LoadProfile !xfkVA=15
New Load.1006082E-A phases=1 bus=X_1006082E_T_05060.1 kV=0.24 kW=11.4805123107917 pf=0.96713312 status=variable mode=4 CVRwatts=0.8 CVRvars=3 class=1 numcust=0 !yearly=LoadProfile !xfkVA=25
New Load.4160253E-ABC phases=3 bus=X_4160253E_T_05060.1.2.3 kV=0.48 kW=9.59518836046899 pf=0.94103881 status=variable mode=4 CVRwatts=0.8 CVRvars=3 class=1 numcust=0 !yearly=LoadProfile !xfkVA=20
New Load.1159236E-B phases=1 bus=X_1159236E_T_05060.2 kV=0.24 kW=14.8888423969953 pf=0.96353593 status=variable mode=4 CVRwatts=0.8 CVRvars=3 class=1 numcust=0 !yearly=LoadProfile !xfkVA=25
New Load.1429043E-B phases=1 bus=X_1429043E_T_05060.2 kV=0.24 kW=14.8888423969953 pf=0.96353593 status=variable mode=4 CVRwatts=0.8 CVRvars=3 class=1 numcust=0 !yearly=LoadProfile !xfkVA=25
New Load.P5378686-B phases=1 bus=X_P5378686_T_05060.2 kV=0.24 kW=44.6665271909858 pf=0.96353593 status=variable mode=4 CVRwatts=0.8 CVRvars=3 class=1 numcust=0 !yearly=LoadProfile !xfkVA=75
New Load.1303654E-B phases=1 bus=X_1303654E_T_05060.2 kV=0.24 kW=14.8888423969953 pf=0.96353593 status=variable mode=4 CVRwatts=0.8 CVRvars=3 class=1 numcust=0 !yearly=LoadProfile !xfkVA=25
New Load.4156458E-C phases=1 bus=X_4156458E_T_05060.3 kV=0.24 kW=24.3437732733031 pf=0.94993192 status=variable mode=4 CVRwatts=0.8 CVRvars=3 class=1 numcust=0 !yearly=LoadProfile !xfkVA=38
New Load.P5378763-C phases=1 bus=X_P5378763_T_05060.3 kV=0.24 kW=64.9167287288083 pf=0.94993192 status=variable mode=4 CVRwatts=0.8 CVRvars=3 class=1 numcust=0 !yearly=LoadProfile !xfkVA=100
New Load.861693E-A phases=1 bus=X_861693E_T_05060.1 kV=0.24 kW=11.4805123107917 pf=0.96713312 status=variable mode=4 CVRwatts=0.8 CVRvars=3 class=1 numcust=0 !yearly=LoadProfile !xfkVA=25
New Load.861690E-A phases=1 bus=X_861690E_T_05060.1 kV=0.24 kW=22.9610255887165 pf=0.96713312 status=variable mode=4 CVRwatts=0.8 CVRvars=3 class=1 numcust=0 !yearly=LoadProfile !xfkVA=50
New Load.P5378783-B phases=1 bus=X_P5378783_T_05060.2 kV=0.24 kW=29.7776847939906 pf=0.96353593 status=variable mode=4 CVRwatts=0.8 CVRvars=3 class=1 numcust=0 !yearly=LoadProfile !xfkVA=50
New Load.585493H-ABC phases=3 bus=X_585493H_T_05060.1.2.3 kV=0.48 kW=71.963912232998 pf=0.94103881 status=variable mode=4 CVRwatts=0.8 CVRvars=3 class=1 numcust=0 !yearly=LoadProfile !xfkVA=150
New Load.4591398E-ABC phases=3 bus=X_4591398E_T_05060.1.2.3 kV=0.48 kW=7.19639103509204 pf=0.94103881 status=variable mode=4 CVRwatts=0.8 CVRvars=3 class=1 numcust=0 !yearly=LoadProfile !xfkVA=15
New Load.132337H-A phases=1 bus=X_132337H_T_05060.1 kV=0.24 kW=11.4805123107917 pf=0.96713312 status=variable mode=4 CVRwatts=0.8 CVRvars=3 class=1 numcust=0 !yearly=LoadProfile !xfkVA=25
New Load.P5378650-B phases=1 bus=X_P5378650_T_05060.2 kV=0.24 kW=59.5553695879811 pf=0.96353593 status=variable mode=4 CVRwatts=0.8 CVRvars=3 class=1 numcust=0 !yearly=LoadProfile !xfkVA=100
New Load.4332023E-ABC phases=3 bus=X_4332023E_T_05060.1.2.3 kV=0.48 kW=11.9939856858459 pf=0.94103881 status=variable mode=4 CVRwatts=0.8 CVRvars=3 class=1 numcust=0 !yearly=LoadProfile !xfkVA=25
New Load.1173075E-ABC phases=3 bus=X_1173075E_T_05060.1.2.3 kV=0.48 kW=35.981956116499 pf=0.94103881 status=variable mode=4 CVRwatts=0.8 CVRvars=3 class=1 numcust=0 !yearly=LoadProfile !xfkVA=75
New Load.1130137E-A phases=1 bus=X_1130137E_T_05060.1 kV=0.24 kW=6.88830796675488 pf=0.96713312 status=variable mode=4 CVRwatts=0.8 CVRvars=3 class=1 numcust=0 !yearly=LoadProfile !xfkVA=15
New Load.437741E-C phases=1 bus=X_437741E_T_05060.3 kV=0.24 kW=24.3437732733031 pf=0.94993192 status=variable mode=4 CVRwatts=0.8 CVRvars=3 class=1 numcust=0 !yearly=LoadProfile !xfkVA=38
New Load.861689E-A phases=1 bus=X_861689E_T_05060.1 kV=0.24 kW=11.4805123107917 pf=0.96713312 status=variable mode=4 CVRwatts=0.8 CVRvars=3 class=1 numcust=0 !yearly=LoadProfile !xfkVA=25
New Load.1041678E-ABC phases=3 bus=X_1041678E_T_05060.1.2.3 kV=0.48 kW=7.19639103509204 pf=0.94103881 status=variable mode=4 CVRwatts=0.8 CVRvars=3 class=1 numcust=0 !yearly=LoadProfile !xfkVA=15
New Load.1159233E-B phases=1 bus=X_1159233E_T_05060.2 kV=0.24 kW=8.93330582361154 pf=0.96353593 status=variable mode=4 CVRwatts=0.8 CVRvars=3 class=1 numcust=0 !yearly=LoadProfile !xfkVA=15
New Load.1006079E-A phases=1 bus=X_1006079E_T_05060.1 kV=0.24 kW=11.4805123107917 pf=0.96713312 status=variable mode=4 CVRwatts=0.8 CVRvars=3 class=1 numcust=0 !yearly=LoadProfile !xfkVA=25
New Load.500424E-ABC phases=3 bus=X_500424E_T_05060.1.2.3 kV=0.48 kW=11.9939856858459 pf=0.94103881 status=variable mode=4 CVRwatts=0.8 CVRvars=3 class=1 numcust=0 !yearly=LoadProfile !xfkVA=25
New Load.1324616E-A phases=1 bus=X_1324616E_T_05060.1 kV=0.24 kW=11.4805123107917 pf=0.96713312 status=variable mode=4 CVRwatts=0.8 CVRvars=3 class=1 numcust=0 !yearly=LoadProfile !xfkVA=25
New Load.216253E-C phases=1 bus=X_216253E_T_05060.3 kV=0.24 kW=48.6875465466062 pf=0.94993192 status=variable mode=4 CVRwatts=0.8 CVRvars=3 class=1 numcust=0 !yearly=LoadProfile !xfkVA=75
New Load.523427E-ABC phases=3 bus=X_523427E_T_05060.1.2.3 kV=0.48 kW=23.9879704306531 pf=0.94103881 status=variable mode=4 CVRwatts=0.8 CVRvars=3 class=1 numcust=0 !yearly=LoadProfile !xfkVA=50
New Load.P5448478-C phases=1 bus=X_P5448478_T_05060.3 kV=0.24 kW=32.4583643644042 pf=0.94993192 status=variable mode=4 CVRwatts=0.8 CVRvars=3 class=1 numcust=0 !yearly=LoadProfile !xfkVA=50
New Load.1041722E-A phases=1 bus=X_1041722E_T_05060.1 kV=0.24 kW=17.2207684661875 pf=0.96713312 status=variable mode=4 CVRwatts=0.8 CVRvars=3 class=1 numcust=0 !yearly=LoadProfile !xfkVA=38
New Load.1429047E-B phases=1 bus=X_1429047E_T_05060.2 kV=0.24 kW=4.46665291180577 pf=0.96353593 status=variable mode=4 CVRwatts=0.8 CVRvars=3 class=1 numcust=0 !yearly=LoadProfile !xfkVA=8
New Load.P5436258-B phases=1 bus=X_P5436258_T_05060.2 kV=0.24 kW=29.7776847939906 pf=0.96353593 status=variable mode=4 CVRwatts=0.8 CVRvars=3 class=1 numcust=0 !yearly=LoadProfile !xfkVA=50
New Load.1041703E-A phases=1 bus=X_1041703E_T_05060.1 kV=0.24 kW=45.9220502102998 pf=0.96713312 status=variable mode=4 CVRwatts=0.8 CVRvars=3 class=1 numcust=0 !yearly=LoadProfile !xfkVA=100
New Load.861626E-A phases=1 bus=X_861626E_T_05060.1 kV=0.24 kW=11.4805123107917 pf=0.96713312 status=variable mode=4 CVRwatts=0.8 CVRvars=3 class=1 numcust=0 !yearly=LoadProfile !xfkVA=25
New Load.884804E-A phases=1 bus=X_884804E_T_05060.1 kV=0.24 kW=4.59220531116992 pf=0.96713312 status=variable mode=4 CVRwatts=0.8 CVRvars=3 class=1 numcust=0 !yearly=LoadProfile !xfkVA=10
New Load.861698E-A phases=1 bus=X_861698E_T_05060.1 kV=0.24 kW=11.4805123107917 pf=0.96713312 status=variable mode=4 CVRwatts=0.8 CVRvars=3 class=1 numcust=0 !yearly=LoadProfile !xfkVA=25
New Load.1159234E-B phases=1 bus=X_1159234E_T_05060.2 kV=0.24 kW=14.8888423969953 pf=0.96353593 status=variable mode=4 CVRwatts=0.8 CVRvars=3 class=1 numcust=0 !yearly=LoadProfile !xfkVA=25
New Load.4403051E-A phases=1 bus=X_4403051E_T_05060.1 kV=0.24 kW=11.4805123107917 pf=0.96713312 status=variable mode=4 CVRwatts=0.8 CVRvars=3 class=1 numcust=0 !yearly=LoadProfile !xfkVA=25
New Load.4426297E-C phases=1 bus=X_4426297E_T_05060.3 kV=0.24 kW=48.6875465466062 pf=0.94993192 status=variable mode=4 CVRwatts=0.8 CVRvars=3 class=1 numcust=0 !yearly=LoadProfile !xfkVA=75
New Load.884875E-A phases=1 bus=X_884875E_T_05060.1 kV=0.24 kW=22.9610255887165 pf=0.96713312 status=variable mode=4 CVRwatts=0.8 CVRvars=3 class=1 numcust=0 !yearly=LoadProfile !xfkVA=50
New Load.4081667E-ABC phases=3 bus=X_4081667E_T_05060.1.2.3 kV=0.48 kW=35.981956116499 pf=0.94103881 status=variable mode=4 CVRwatts=0.8 CVRvars=3 class=1 numcust=0 !yearly=LoadProfile !xfkVA=75
New Load.4081665E-ABC phases=3 bus=X_4081665E_T_05060.1.2.3 kV=0.48 kW=35.981956116499 pf=0.94103881 status=variable mode=4 CVRwatts=0.8 CVRvars=3 class=1 numcust=0 !yearly=LoadProfile !xfkVA=75
New Load.2077628E-C phases=1 bus=X_2077628E_T_05060.3 kV=0.24 kW=24.3437732733031 pf=0.94993192 status=variable mode=4 CVRwatts=0.8 CVRvars=3 class=1 numcust=0 !yearly=LoadProfile !xfkVA=38
New Load.861694E-A phases=1 bus=X_861694E_T_05060.1 kV=0.24 kW=11.4805123107917 pf=0.96713312 status=variable mode=4 CVRwatts=0.8 CVRvars=3 class=1 numcust=0 !yearly=LoadProfile !xfkVA=25
New Load.1363411E-B phases=1 bus=X_1363411E_T_05060.2 kV=0.24 kW=14.8888423969953 pf=0.96353593 status=variable mode=4 CVRwatts=0.8 CVRvars=3 class=1 numcust=0 !yearly=LoadProfile !xfkVA=25
New Load.1379785ET1-ABC phases=3 bus=X_1379785ET1_T_05060.1.2.3 kV=0.48 kW=23.9879704306531 pf=0.94103881 status=variable mode=4 CVRwatts=0.8 CVRvars=3 class=1 numcust=0 !yearly=LoadProfile !xfkVA=50
New Load.1130136E-A phases=1 bus=X_1130136E_T_05060.1 kV=0.24 kW=22.9610255887165 pf=0.96713312 status=variable mode=4 CVRwatts=0.8 CVRvars=3 class=1 numcust=0 !yearly=LoadProfile !xfkVA=50
New Load.300182E-ABC phases=3 bus=X_300182E_T_05060.1.2.3 kV=0.48 kW=35.981956116499 pf=0.94103881 status=variable mode=4 CVRwatts=0.8 CVRvars=3 class=1 numcust=0 !yearly=LoadProfile !xfkVA=75
New Load.P5514758-B phases=1 bus=X_P5514758_T_05060.2 kV=0.24 kW=44.6665271909858 pf=0.96353593 status=variable mode=4 CVRwatts=0.8 CVRvars=3 class=1 numcust=0 !yearly=LoadProfile !xfkVA=75
New Load.740606E-B phases=1 bus=X_740606E_T_05060.2 kV=0.24 kW=29.7776847939906 pf=0.96353593 status=variable mode=4 CVRwatts=0.8 CVRvars=3 class=1 numcust=0 !yearly=LoadProfile !xfkVA=50
New Load.1992888E-ABC phases=3 bus=X_1992888E_T_05060.1.2.3 kV=0.48 kW=35.981956116499 pf=0.94103881 status=variable mode=4 CVRwatts=0.8 CVRvars=3 class=1 numcust=0 !yearly=LoadProfile !xfkVA=75
New Load.1323366E-A phases=1 bus=X_1323366E_T_05060.1 kV=0.24 kW=6.88830796675488 pf=0.96713312 status=variable mode=4 CVRwatts=0.8 CVRvars=3 class=1 numcust=0 !yearly=LoadProfile !xfkVA=15
New Load.4693285E-ABC phases=3 bus=X_4693285E_T_05060.1.2.3 kV=0.48 kW=11.9939856858459 pf=0.94103881 status=variable mode=4 CVRwatts=0.8 CVRvars=3 class=1 numcust=0 !yearly=LoadProfile !xfkVA=25
New Load.1172693E-C phases=1 bus=X_1172693E_T_05060.3 kV=0.24 kW=16.2291821822021 pf=0.94993192 status=variable mode=4 CVRwatts=0.8 CVRvars=3 class=1 numcust=0 !yearly=LoadProfile !xfkVA=25
New Load.4081666E-ABC phases=3 bus=X_4081666E_T_05060.1.2.3 kV=0.48 kW=23.9879704306531 pf=0.94103881 status=variable mode=4 CVRwatts=0.8 CVRvars=3 class=1 numcust=0 !yearly=LoadProfile !xfkVA=50
New Load.523423E-A phases=1 bus=X_523423E_T_05060.1 kV=0.24 kW=34.4415378995082 pf=0.96713312 status=variable mode=4 CVRwatts=0.8 CVRvars=3 class=1 numcust=0 !yearly=LoadProfile !xfkVA=75
New Load.1041682E-ABC phases=3 bus=X_1041682E_T_05060.1.2.3 kV=0.48 kW=11.9939856858459 pf=0.94103881 status=variable mode=4 CVRwatts=0.8 CVRvars=3 class=1 numcust=0 !yearly=LoadProfile !xfkVA=25
New Load.1159232E-B phases=1 bus=X_1159232E_T_05060.2 kV=0.24 kW=8.93330582361154 pf=0.96353593 status=variable mode=4 CVRwatts=0.8 CVRvars=3 class=1 numcust=0 !yearly=LoadProfile !xfkVA=15
New Load.2129811E-ABC phases=3 bus=X_2129811E_T_05060.1.2.3 kV=0.48 kW=35.981956116499 pf=0.94103881 status=variable mode=4 CVRwatts=0.8 CVRvars=3 class=1 numcust=0 !yearly=LoadProfile !xfkVA=75
New Load.4516751E-ABC phases=3 bus=X_4516751E_T_05060.1.2.3 kV=0.48 kW=35.981956116499 pf=0.94103881 status=variable mode=4 CVRwatts=0.8 CVRvars=3 class=1 numcust=0 !yearly=LoadProfile !xfkVA=75
New Load.1323501E-B phases=1 bus=X_1323501E_T_05060.2 kV=0.24 kW=14.8888423969953 pf=0.96353593 status=variable mode=4 CVRwatts=0.8 CVRvars=3 class=1 numcust=0 !yearly=LoadProfile !xfkVA=25
New Load.121645E-ABC phases=3 bus=X_121645E_T_05060.1.2.3 kV=0.48 kW=17.9909775877301 pf=0.94103881 status=variable mode=4 CVRwatts=0.8 CVRvars=3 class=1 numcust=0 !yearly=LoadProfile !xfkVA=38
New Load.861627E-A phases=1 bus=X_861627E_T_05060.1 kV=0.24 kW=11.4805123107917 pf=0.96713312 status=variable mode=4 CVRwatts=0.8 CVRvars=3 class=1 numcust=0 !yearly=LoadProfile !xfkVA=25
New Load.290907E-C phases=1 bus=X_290907E_T_05060.3 kV=0.24 kW=24.3437732733031 pf=0.94993192 status=variable mode=4 CVRwatts=0.8 CVRvars=3 class=1 numcust=0 !yearly=LoadProfile !xfkVA=38
New Load.121643E-ABC phases=3 bus=X_121643E_T_05060.1.2.3 kV=0.48 kW=17.9909775877301 pf=0.94103881 status=variable mode=4 CVRwatts=0.8 CVRvars=3 class=1 numcust=0 !yearly=LoadProfile !xfkVA=38
New Load.1041704E-A phases=1 bus=X_1041704E_T_05060.1 kV=0.24 kW=17.2207684661875 pf=0.96713312 status=variable mode=4 CVRwatts=0.8 CVRvars=3 class=1 numcust=0 !yearly=LoadProfile !xfkVA=38
New Load.1159231E-B phases=1 bus=X_1159231E_T_05060.2 kV=0.24 kW=8.93330582361154 pf=0.96353593 status=variable mode=4 CVRwatts=0.8 CVRvars=3 class=1 numcust=0 !yearly=LoadProfile !xfkVA=15
New Load.4502937E-C phases=1 bus=X_4502937E_T_05060.3 kV=0.24 kW=48.6875465466062 pf=0.94993192 status=variable mode=4 CVRwatts=0.8 CVRvars=3 class=1 numcust=0 !yearly=LoadProfile !xfkVA=75
New Load.861697E-A phases=1 bus=X_861697E_T_05060.1 kV=0.24 kW=6.88830796675488 pf=0.96713312 status=variable mode=4 CVRwatts=0.8 CVRvars=3 class=1 numcust=0 !yearly=LoadProfile !xfkVA=15
New Load.861696E-A phases=1 bus=X_861696E_T_05060.1 kV=0.24 kW=22.9610255887165 pf=0.96713312 status=variable mode=4 CVRwatts=0.8 CVRvars=3 class=1 numcust=0 !yearly=LoadProfile !xfkVA=50
